Circuit: * D:\Developments\Projects\RND\LTspice\Filter_Test\Filter1.asc

C4: Increased Cpar to 1.8e-013
WARNING: Node NC_01 is floating.

WARNING: Less than two connections to node N005.  This node is used by D3.
WARNING: Less than two connections to node NC_01.  This node is used by C3.
Direct Newton iteration failed to find .op point.  (Use ".option noopiter" to skip.)
Starting Gmin stepping
Gmin = 10
Gmin = 1.07374
vernier = 0.5
vernier = 0.25
vernier = 0.125
vernier = 0.0625
Gmin = 1.08884
vernier = 0.03125
vernier = 0.015625
Gmin = 1.03122
vernier = 0.0078125
vernier = 0.00390625
Gmin = 1.01823
vernier = 0.00520833
vernier = 0.00260417
Gmin = 1.01162
vernier = 0.00347222
vernier = 0.00173611
vernier = 0.00231481
vernier = 0.00115741
Gmin = 1.00877
vernier = 0.00154321
vernier = 0.000771604
Gmin = 1.00673
vernier = 0.00102881
vernier = 0.000514403
vernier = 0.00068587
Gmin = 1.00553
vernier = 0.000514403
vernier = 0.00068587
vernier = 0.000514402
Gmin = 1.00475
Gmin = 0
Gmin stepping failed

Starting source stepping with srcstepmethod=0
Source Step = 3.0303%
Source Step = 21.2595%
vernier = 0.00390625
Source Step = 21.2388%
Source Step = 21.2683%
Source Step = 21.2979%
Source Step = 21.3275%
Source Step = 21.3571%
vernier = 0.00146484
Source Step = 21.3897%
Source Step = 21.4341%
Source Step = 21.4785%
Source Step = 21.5228%
Source Step = 21.5672%
vernier = 0.00219727
Source Step = 21.6138%
Source Step = 21.6804%
Source Step = 21.747%
Source Step = 21.8136%
Source Step = 21.8802%
Source Step = 21.9468%
vernier = 0.0032959
Source Step = 22.0466%
Source Step = 22.1465%
Source Step = 22.2464%
Source Step = 22.3463%
Source Step = 22.4461%
vernier = 0.00494385
Source Step = 22.591%
Source Step = 22.7408%
Source Step = 22.8906%
Source Step = 23.0404%
Source Step = 23.1902%
vernier = 0.00741577
Source Step = 23.4%
Source Step = 23.6247%
Source Step = 23.8494%
Source Step = 24.0741%
Source Step = 24.2988%
vernier = 0.0111237
Source Step = 24.6022%
Source Step = 24.9393%
Source Step = 25.2764%
Source Step = 25.6134%
Source Step = 25.9505%
vernier = 0.0166855
Source Step = 26.3887%
Source Step = 26.8944%
Source Step = 27.4%
Source Step = 27.9056%
Source Step = 28.4112%
vernier = 0.0250282
Source Step = 29.0432%
Source Step = 29.8017%
Source Step = 30.5601%
Source Step = 31.3185%
Source Step = 32.077%
vernier = 0.0375423
Source Step = 32.9871%
Source Step = 34.1247%
Source Step = 35.2624%
Source Step = 36.4%
Source Step = 37.5377%
vernier = 0.0563135
Source Step = 38.846%
Source Step = 40.5524%
Source Step = 42.2589%
Source Step = 43.9654%
Source Step = 45.6718%
vernier = 0.0844703
Source Step = 47.549%
Source Step = 50.1087%
Source Step = 52.6684%
Source Step = 55.2281%
Source Step = 57.7878%
vernier = 0.126705
Source Step = 60.4755%
Source Step = 64.315%
Source Step = 68.1546%
Source Step = 71.9941%
Source Step = 75.8337%
Source Step = 79.6733%
vernier = 0.190058
Source Step = 85.4326%
Source Step = 91.1919%
Source Step = 96.9513%
Source Step = 100%
Source Step = 100%
vernier = 0.285087
Source stepping succeeded in finding the operating point.


Date: Thu Feb 13 21:11:29 2020
Total elapsed time: 0.240 seconds.

tnom = 27
temp = 27
method = modified trap
totiter = 14812
traniter = 4930
tranpoints = 2281
accept = 1929
rejected = 352
matrix size = 32
fillins = 32
solver = Normal
Thread vector: 8.9/3.8[2] 1.5/1.1[2] 2.4/0.8[2] 0.1/1.0[1]  2592/500
Matrix Compiler1: 2.80 KB object code size  0.5/0.3/[0.1]
Matrix Compiler2: off  [0.2]/0.3/0.8


