Circuit: * D:\Developments\Projects\RND\LTspice\Diff_OAMP_0.asc

WARNING: Less than two connections to node NC_01.  This node is used by V3.
WARNING: Less than two connections to node NC_02.  This node is used by R6.
Direct Newton iteration failed to find .op point.  (Use ".option noopiter" to skip.)
Starting Gmin stepping
Gmin = 10
Gmin = 1.07374
Gmin = 0.115292
Gmin = 0.0123794
Gmin = 0.00132923
Gmin = 0.000142725
Gmin = 1.5325e-005
Gmin = 1.6455e-006
Gmin = 1.76685e-007
Gmin = 1.89714e-008
Gmin = 2.03704e-009
Gmin = 2.18725e-010
Gmin = 2.34854e-011
Gmin = 2.52173e-012
Gmin = 2.70769e-013
Gmin = 0
Gmin stepping succeeded in finding the operating point.

Heightened Def Con from 2.03127e-009 to 6.03127e-009

Date: Mon Sep 20 09:02:06 2021
Total elapsed time: 0.099 seconds.

tnom = 27
temp = 27
method = modified trap
totiter = 3592
traniter = 3041
tranpoints = 1100
accept = 1080
rejected = 21
matrix size = 93
fillins = 52
solver = Normal
Matrix Compiler1: 8.15 KB object code size  1.3/0.7/[0.3]
Matrix Compiler2: 8.81 KB object code size  1.1/1.4/[0.3]

